446853
  PyMOL2.5          3D                             0

 27 28  0  0  0  0  0  0  0  0999 V2000
   18.9589    6.8743   11.1077 Cl  0  0  0  0  0  0  0  0  0  0  0  0
   25.0744    5.6950   14.0624 S   0  0  0  0  0  0  0  0  0  0  0  0
   24.1553    7.7599   17.6489 S   0  0  0  0  0  0  0  0  0  0  0  0
   26.1897    4.9509   14.6149 O   0  0  0  0  0  0  0  0  0  0  0  0
   25.2439    6.5327   12.8922 O   0  0  0  0  0  0  0  0  0  0  0  0
   25.2111    5.2256   18.5649 O   0  0  0  0  0  0  0  0  0  0  0  0
   24.5353    4.0348   16.7505 O   0  0  0  0  0  0  0  0  0  0  0  0
   23.7231    4.6348   13.8562 N   0  0  0  0  0  0  0  0  0  0  0  0
   24.6666    6.8027   15.3598 C   0  0  0  0  0  0  0  0  0  0  0  0
   22.5776    5.1728   13.1955 C   0  0  0  0  0  0  0  0  0  0  0  0
   24.5697    6.4253   16.6593 C   0  0  0  0  0  0  0  0  0  0  0  0
   24.4126    8.1640   15.1250 C   0  0  0  0  0  0  0  0  0  0  0  0
   24.1163    8.8160   16.3015 C   0  0  0  0  0  0  0  0  0  0  0  0
   22.4625    5.0756   11.8090 C   0  0  0  0  0  0  0  0  0  0  0  0
   21.5735    5.7959   13.9368 C   0  0  0  0  0  0  0  0  0  0  0  0
   21.3436    5.6016   11.1634 C   0  0  0  0  0  0  0  0  0  0  0  0
   20.4545    6.3220   13.2912 C   0  0  0  0  0  0  0  0  0  0  0  0
   24.7517    5.1495   17.2749 C   0  0  0  0  0  0  0  0  0  0  0  0
   20.3395    6.2247   11.9045 C   0  0  0  0  0  0  0  0  0  0  0  0
   23.4790    4.0985   14.7002 H   0  0  0  0  0  0  0  0  0  0  0  0
   24.4333    8.6683   14.1678 H   0  0  0  0  0  0  0  0  0  0  0  0
   23.8777    9.8619   16.4344 H   0  0  0  0  0  0  0  0  0  0  0  0
   23.2392    4.5917   11.2223 H   0  0  0  0  0  0  0  0  0  0  0  0
   21.6483    5.8735   15.0183 H   0  0  0  0  0  0  0  0  0  0  0  0
   21.2675    5.5187   10.0822 H   0  0  0  0  0  0  0  0  0  0  0  0
   19.6796    6.8039   13.8818 H   0  0  0  0  0  0  0  0  0  0  0  0
   25.3266    4.3353   18.9606 H   0  0  0  0  0  0  0  0  0  0  0  0
  1 19  1  0  0  0  0
  2  4  2  0  0  0  0
  2  5  2  0  0  0  0
  2  8  1  0  0  0  0
  2  9  1  0  0  0  0
  3 11  1  0  0  0  0
  3 13  1  0  0  0  0
  6 18  1  0  0  0  0
  6 27  1  0  0  0  0
  7 18  2  0  0  0  0
  8 10  1  0  0  0  0
  8 20  1  0  0  0  0
  9 11  2  0  0  0  0
  9 12  1  0  0  0  0
 10 14  2  0  0  0  0
 10 15  1  0  0  0  0
 11 18  1  0  0  0  0
 12 13  2  0  0  0  0
 12 21  1  0  0  0  0
 13 22  1  0  0  0  0
 14 16  1  0  0  0  0
 14 23  1  0  0  0  0
 15 17  2  0  0  0  0
 15 24  1  0  0  0  0
 16 19  2  0  0  0  0
 16 25  1  0  0  0  0
 17 19  1  0  0  0  0
 17 26  1  0  0  0  0
M  END
>  <PUBCHEM_COMPOUND_CID>
446853

>  <PUBCHEM_CONFORMER_RMSD>
0.600000

>  <PUBCHEM_CONFORMER_DIVERSEORDER>
1
8
26
16
36
10
27
6
22
9
23
34
35
39
19
11
17
18
40
24
7
15
32
41
28
29
14
25
12
2
21
5
42
31
3
4
20
30
38
37
43
13
33


>  <PUBCHEM_MMFF94_PARTIAL_CHARGES>
27
1 -0.18
10 0.2
11 -0.05
12 -0.15
13 -0.11
14 -0.15
15 -0.15
16 -0.15
17 -0.15
18 0.81
19 0.18
2 1.5
20 0.42
21 0.15
22 0.15
23 0.15
24 0.15
25 0.15
26 0.15
27 0.5
3 -0.08
4 -0.65
5 -0.65
6 -0.65
7 -0.57
8 -0.76
9 -0.06


>  <PUBCHEM_EFFECTIVE_ROTOR_COUNT>
4

>  <PUBCHEM_PHARMACOPHORE_FEATURES>
8
1 4 acceptor
1 5 acceptor
1 6 acceptor
1 7 acceptor
1 8 donor
3 6 7 18 anion
5 3 9 11 12 13 rings
6 10 14 15 16 17 19 rings


>  <PUBCHEM_HEAVY_ATOM_COUNT>
19

>  <PUBCHEM_ATOM_DEF_STEREO_COUNT>
0

>  <PUBCHEM_ATOM_UDEF_STEREO_COUNT>
0

>  <PUBCHEM_BOND_DEF_STEREO_COUNT>
0

>  <PUBCHEM_BOND_UDEF_STEREO_COUNT>
0

>  <PUBCHEM_ISOTOPIC_ATOM_COUNT>
0

>  <PUBCHEM_COMPONENT_COUNT>
1

>  <PUBCHEM_CACTVS_TAUTO_COUNT>
1

>  <PUBCHEM_CONFORMER_ID>
0006D18500000001

>  <PUBCHEM_MMFF94_ENERGY>
44.388600

>  <PUBCHEM_FEATURE_SELFOVERLAP>
40.674000

>  <PUBCHEM_SHAPE_FINGERPRINT>
11315181 36 18335143142039768004
11640471 11 18268153041436109584
11725454 13 15575256732514720303
12077114 3 16515687757935008108
12507557 5 17895758525387105148
12592029 89 16878214278069720299
13583140 156 16370730356832279984
14142880 1 17967258585377879677
14251764 3 16226042271705964685
14251764 38 18130500950919668464
15295992 7 15140683600330947989
17349148 13 18408879616717355754
17492 89 18271244902604684159
1813 80 11527667535366633552
18186145 218 17895763889437085358
18219364 16 17168435878000042465
18522851 12 9583508833123310064
192875 21 18409439272299070112
19765921 60 18264490581473985817
200 152 18342453780949662022
20300324 65 18060700593537783788
20871999 31 17775275046327351205
21095088 737 18128257981363258960
21339142 36 18196941186889155315
22749437 52 18335426785463429068
2306618 200 17822859795899425783
23402539 116 18413670201395134549
23419403 2 17905052800281901531
23557571 272 17131827651275039800
427121 178 13552869895658796685
4340502 62 17751943341177886393
474 4 18262242092758195576
83771 10 11743835871846354614
9981440 41 18411134749504992426


>  <PUBCHEM_SHAPE_MULTIPOLES>
372.12
8.08
2.29
1.57
7.96
0.47
0.23
3.19
-2.75
-0.95
0.6
-1.26
-0.2
-0.94


>  <PUBCHEM_SHAPE_SELFOVERLAP>
764.700000

>  <PUBCHEM_SHAPE_VOLUME>
215

>  <PUBCHEM_COORDINATE_TYPE>
2
5
10


$$$$
