11854202
  PyMOL2.5          3D                             0

 38 41  0  0  1  0  0  0  0  0999 V2000
   24.9832   22.9921    6.5727 H   0  0  0  0  0  0  0  0  0  0  0  0
   19.3584   23.2780   11.5983 H   0  0  0  0  0  0  0  0  0  0  0  0
   18.1816   21.6599   11.6751 H   0  0  0  0  0  0  0  0  0  0  0  0
   27.7248   25.6850    8.7554 H   0  0  0  0  0  0  0  0  0  0  0  0
   16.4895   20.2514   10.2387 Cl  0  0  0  0  0  0  0  0  0  0  0  0
   14.2595   18.1603   11.2173 Cl  0  0  0  0  0  0  0  0  0  0  0  0
   27.1117   25.7657    8.0211 O   0  0  0  0  0  0  0  0  0  0  0  0
   27.2399   23.5601    7.4600 O   0  0  0  0  0  0  0  0  0  0  0  0
   17.3250   23.6070   14.0511 O   0  0  0  0  0  0  0  0  0  0  0  0
   24.6106   23.2561    7.4736 N   0  0  0  0  0  0  0  0  0  0  0  0
   20.5766   25.5306   11.9490 N   0  0  0  0  0  0  0  0  0  0  0  0
   20.9723   26.7349   12.4140 N   0  0  0  0  0  0  0  0  0  0  0  0
   18.9743   23.7783   12.3871 N   0  0  0  0  0  0  0  0  0  0  0  0
   17.6154   21.9075   12.4740 N   0  0  0  0  0  0  0  0  0  0  0  0
   24.6506   24.9706    9.2391 C   0  0  0  0  0  0  0  0  0  0  0  0
   23.1897   24.6908    9.4868 C   0  0  0  0  0  0  0  0  0  0  0  0
   20.2912   28.1934   14.2349 C   0  0  0  0  0  0  0  0  0  0  0  0
   25.0878   24.5946    7.8199 C   0  0  1  0  0  0  0  0  0  0  0  0
   22.4805   23.8236    8.6371 C   0  0  0  0  0  0  0  0  0  0  0  0
   23.1439   23.2344    7.4167 C   0  0  0  0  0  0  0  0  0  0  0  0
   20.1627   26.9513   13.4541 C   0  0  0  0  0  0  0  0  0  0  0  0
   21.2046   24.9706   10.8515 C   0  0  0  0  0  0  0  0  0  0  0  0
   22.5474   25.2498   10.5992 C   0  0  0  0  0  0  0  0  0  0  0  0
   21.1287   23.5583    8.8940 C   0  0  0  0  0  0  0  0  0  0  0  0
   19.5425   24.9922   12.6717 C   0  0  0  0  0  0  0  0  0  0  0  0
   18.9778   29.0542   14.2159 C   0  0  0  0  0  0  0  0  0  0  0  0
   21.4151   29.1888   13.7606 C   0  0  0  0  0  0  0  0  0  0  0  0
   20.6253   27.9223   15.7452 C   0  0  0  0  0  0  0  0  0  0  0  0
   19.2514   25.8986   13.6618 C   0  0  0  0  0  0  0  0  0  0  0  0
   20.4956   24.1275    9.9986 C   0  0  0  0  0  0  0  0  0  0  0  0
   26.5810   24.5507    7.7390 C   0  0  0  0  0  0  0  0  0  0  0  0
   17.9067   23.1438   13.0757 C   0  0  0  0  0  0  0  0  0  0  0  0
   16.6271   20.9669   12.8488 C   0  0  0  0  0  0  0  0  0  0  0  0
   16.0274   20.1420   11.9097 C   0  0  0  0  0  0  0  0  0  0  0  0
   16.2799   20.8985   14.1903 C   0  0  0  0  0  0  0  0  0  0  0  0
   15.0578   19.2273   12.3204 C   0  0  0  0  0  0  0  0  0  0  0  0
   15.3103   19.9837   14.6011 C   0  0  0  0  0  0  0  0  0  0  0  0
   14.6993   19.1482   13.6661 C   0  0  0  0  0  0  0  0  0  0  0  0
  5 34  1  0  0  0  0
  6 36  1  0  0  0  0
  4  7  1  0  0  0  0
  7 31  1  0  0  0  0
  8 31  2  0  0  0  0
  9 32  2  0  0  0  0
  1 10  1  0  0  0  0
 10 18  1  0  0  0  0
 10 20  1  0  0  0  0
 11 12  1  0  0  0  0
 11 22  1  0  0  0  0
 11 25  1  0  0  0  0
 12 21  2  0  0  0  0
  2 13  1  0  0  0  0
 13 25  1  0  0  0  0
 13 32  1  0  0  0  0
  3 14  1  0  0  0  0
 14 32  1  0  0  0  0
 14 33  1  0  0  0  0
 15 16  1  0  0  0  0
 15 18  1  0  0  0  0
 16 19  2  0  0  0  0
 16 23  1  0  0  0  0
 17 21  1  0  0  0  0
 17 26  1  0  0  0  0
 17 27  1  0  0  0  0
 17 28  1  0  0  0  0
 18 31  1  0  0  0  0
 19 20  1  0  0  0  0
 19 24  1  0  0  0  0
 21 29  1  0  0  0  0
 22 23  2  0  0  0  0
 22 30  1  0  0  0  0
 24 30  2  0  0  0  0
 25 29  2  0  0  0  0
 33 34  2  0  0  0  0
 33 35  1  0  0  0  0
 34 36  1  0  0  0  0
 35 37  2  0  0  0  0
 36 38  2  0  0  0  0
 37 38  1  0  0  0  0
M  END
>  <PUBCHEM_COMPOUND_CID>
11854202

>  <PUBCHEM_CONFORMER_RMSD>
1

>  <PUBCHEM_CONFORMER_DIVERSEORDER>
3
16
36
43
13
18
38
5
22
31
21
9
33
41
34
47
20
30
2
32
24
46
23
14
6
44
45
40
28
10
15
19
26
29
8
17
1
42
4
11
27
37
25
48
7
39
12
35


>  <PUBCHEM_MMFF94_PARTIAL_CHARGES>
42
1 -0.18
10 -0.55
11 0.14
12 -0.14
13 0.18
14 0.33
15 -0.14
16 0.41
17 0.11
18 -0.02
19 -0.15
2 -0.18
20 -0.15
21 -0.09
25 -0.15
26 -0.15
27 0.66
28 0.69
29 0.12
3 -0.65
30 0.18
31 -0.15
32 0.18
33 -0.15
34 -0.15
4 -0.57
40 0.36
41 0.15
42 0.15
5 -0.57
52 0.15
53 0.15
54 0.37
55 0.5
56 0.37
57 0.15
58 0.15
59 0.15
6 -0.9
7 0.59
8 -0.71
9 -0.49


>  <PUBCHEM_EFFECTIVE_ROTOR_COUNT>
7.800000

>  <PUBCHEM_PHARMACOPHORE_FEATURES>
14
1 10 donor
1 3 acceptor
1 4 acceptor
1 5 acceptor
1 6 cation
1 6 donor
1 8 acceptor
1 9 donor
3 3 4 27 anion
4 13 22 23 24 hydrophobe
5 7 8 17 21 25 rings
6 12 15 18 19 20 26 rings
6 29 30 31 32 33 34 rings
6 6 11 12 14 15 16 rings


>  <PUBCHEM_HEAVY_ATOM_COUNT>
34

>  <PUBCHEM_ATOM_DEF_STEREO_COUNT>
1

>  <PUBCHEM_ATOM_UDEF_STEREO_COUNT>
0

>  <PUBCHEM_BOND_DEF_STEREO_COUNT>
0

>  <PUBCHEM_BOND_UDEF_STEREO_COUNT>
0

>  <PUBCHEM_ISOTOPIC_ATOM_COUNT>
0

>  <PUBCHEM_COMPONENT_COUNT>
1

>  <PUBCHEM_CACTVS_TAUTO_COUNT>
7

>  <PUBCHEM_CONFORMER_ID>
00B4E17A00000003

>  <PUBCHEM_MMFF94_ENERGY>
106.998200

>  <PUBCHEM_FEATURE_SELFOVERLAP>
71.171000

>  <PUBCHEM_SHAPE_FINGERPRINT>
10050765 1 18410577241797750640
10411042 1 18411982481259105381
10483366 6 18264762174184901517
10595046 47 18262528001280469806
10693767 8 18268420403557142903
11062273 19 17903638827765261173
11135609 149 18125978667999359277
11297750 10 18271796917935152600
11411753 3 17680984400064678459
11720765 8 18268710691875161001
12107183 9 18270417052849412481
12633046 712 17825413996287427219
12788726 201 18261955137645834922
13248334 5 17979634855437524225
13617811 41 18335421335561439132
13631057 29 18410297978649459114
14068700 675 18334859407430036604
14068700 686 18413107252481222664
14347332 77 18337391548417605314
14725015 67 18412821357255482618
14790565 3 17184473118986821640
14866123 147 18267028254311081153
14931854 50 17967814938124949426
15183329 4 18259702306919393363
15250474 111 18044374925473812346
15351339 4 18040704844936737891
15400415 2 17041764764792403833
15803439 3 17029633362743832573
15890870 6 18119805804322964325
15927050 60 17832711166739666530
15968369 26 17684928390251973496
15979999 66 18410849997594497463
16087824 20 18265900151898859905
16628084 112 18044093450032709131
16992752 21 18339935857174196548
19301676 85 18335703861898711699
21033648 29 8358258090919563326
21133410 171 17684882004748686746
21133410 58 18195799889752209375
21703447 108 18412538839123835328
23559900 14 18194680604310266723
23569914 152 18196622243372759519
23569943 247 18411982438674345907
24771750 20 17250626841999551581
25019877 29 17541673711596321829
255183 313 17980504277140506257
3004659 81 18113616819944807786
3103668 31 18261668170039832317
32027 91 18266457801350662115
3504750 166 18194404394572901786
3534868 343 18335154102448018540
3627633 1 18340489975937209865
4046055 25 18334016086011555708
4756088 132 17832984228045652938
5309563 4 18412547638889033422
6058803 2 17698454557170752107
6691757 9 17837210377459255816
6695519 79 16611408242752489857
6697151 62 18269259326897321823
6698420 124 17195175808232082016
6700243 42 17771099066868877492
77188 2 18339926016608373805


>  <PUBCHEM_SHAPE_MULTIPOLES>
660.93
18.89
8.47
1.05
12.89
15.26
-0.03
-32.24
-5.8
-7.47
1.05
0.21
-0.05
-2.25


>  <PUBCHEM_SHAPE_SELFOVERLAP>
1413.026000

>  <PUBCHEM_SHAPE_VOLUME>
368.300000

>  <PUBCHEM_COORDINATE_TYPE>
2
5
10


$$$$
