132190620
  PyMOL2.5          3D                             0

 34 36  0  0  0  0  0  0  0  0999 V2000
   18.0006   33.2011  102.5750 Cl  0  0  0  0  0  0  0  0  0  0  0  0
   13.6871   46.1073  102.4822 F   0  0  0  0  0  0  0  0  0  0  0  0
   11.7084   45.2605  102.8774 F   0  0  0  0  0  0  0  0  0  0  0  0
   16.9412   33.6625   98.2861 F   0  0  0  0  0  0  0  0  0  0  0  0
   18.6258   33.1254   99.5515 F   0  0  0  0  0  0  0  0  0  0  0  0
   16.6646   32.2885   99.9484 F   0  0  0  0  0  0  0  0  0  0  0  0
   13.4727   43.8555  102.6423 O   0  0  0  0  0  0  0  0  0  0  0  0
   12.5670   45.1046  100.7844 O   0  0  0  0  0  0  0  0  0  0  0  0
   15.2303   39.4035  101.9539 O   0  0  0  0  0  0  0  0  0  0  0  0
   14.5241   40.0550   99.8172 N   0  0  0  0  0  0  0  0  0  0  0  0
   15.4730   37.9714  100.1211 N   0  0  0  0  0  0  0  0  0  0  0  0
   13.5328   43.1613  101.4723 C   0  0  0  0  0  0  0  0  0  0  0  0
   13.0160   43.8740  100.4123 C   0  0  0  0  0  0  0  0  0  0  0  0
   14.0192   41.3388  100.0282 C   0  0  0  0  0  0  0  0  0  0  0  0
   14.0427   41.8894  101.3120 C   0  0  0  0  0  0  0  0  0  0  0  0
   12.9811   43.3525   99.1355 C   0  0  0  0  0  0  0  0  0  0  0  0
   13.4914   42.0659   98.9465 C   0  0  0  0  0  0  0  0  0  0  0  0
   16.0757   36.8289  100.6983 C   0  0  0  0  0  0  0  0  0  0  0  0
   12.8615   45.0717  102.1885 C   0  0  0  0  0  0  0  0  0  0  0  0
   16.9824   34.6011  100.4702 C   0  0  0  0  0  0  0  0  0  0  0  0
   16.3868   35.7270   99.9015 C   0  0  0  0  0  0  0  0  0  0  0  0
   15.0928   39.1633  100.7586 C   0  0  0  0  0  0  0  0  0  0  0  0
   16.3600   36.8048  102.0636 C   0  0  0  0  0  0  0  0  0  0  0  0
   17.2668   34.5772  101.8355 C   0  0  0  0  0  0  0  0  0  0  0  0
   16.9555   35.6791  102.6323 C   0  0  0  0  0  0  0  0  0  0  0  0
   17.2983   33.4404   99.5832 C   0  0  0  0  0  0  0  0  0  0  0  0
   14.4284   41.4010  102.1932 H   0  0  0  0  0  0  0  0  0  0  0  0
   12.5737   43.9162   98.3040 H   0  0  0  0  0  0  0  0  0  0  0  0
   13.4750   41.6336   97.9486 H   0  0  0  0  0  0  0  0  0  0  0  0
   14.4750   39.7183   98.8586 H   0  0  0  0  0  0  0  0  0  0  0  0
   16.1600   35.7578   98.8385 H   0  0  0  0  0  0  0  0  0  0  0  0
   15.2975   37.9132   99.1213 H   0  0  0  0  0  0  0  0  0  0  0  0
   16.1502   37.6157  102.7462 H   0  0  0  0  0  0  0  0  0  0  0  0
   17.1712   35.6747  103.6981 H   0  0  0  0  0  0  0  0  0  0  0  0
  1 24  1  0  0  0  0
  2 19  1  0  0  0  0
  3 19  1  0  0  0  0
  4 26  1  0  0  0  0
  5 26  1  0  0  0  0
  6 26  1  0  0  0  0
  7 12  1  0  0  0  0
  7 19  1  0  0  0  0
  8 13  1  0  0  0  0
  8 19  1  0  0  0  0
  9 22  2  0  0  0  0
 10 14  1  0  0  0  0
 10 22  1  0  0  0  0
 10 30  1  0  0  0  0
 11 18  1  0  0  0  0
 11 22  1  0  0  0  0
 11 32  1  0  0  0  0
 12 13  2  0  0  0  0
 12 15  1  0  0  0  0
 13 16  1  0  0  0  0
 14 15  2  0  0  0  0
 14 17  1  0  0  0  0
 15 27  1  0  0  0  0
 16 17  2  0  0  0  0
 16 28  1  0  0  0  0
 17 29  1  0  0  0  0
 18 21  2  0  0  0  0
 18 23  1  0  0  0  0
 20 21  1  0  0  0  0
 20 24  2  0  0  0  0
 20 26  1  0  0  0  0
 21 31  1  0  0  0  0
 23 25  2  0  0  0  0
 23 33  1  0  0  0  0
 24 25  1  0  0  0  0
 25 34  1  0  0  0  0
M  END
>  <PUBCHEM_COMPOUND_CID>
132190620

>  <PUBCHEM_CONFORMER_RMSD>
0.800000

>  <PUBCHEM_CONFORMER_DIVERSEORDER>
1
12
25
17
9
22
11
7
3
27
26
21
10
4
18
15
8
23
6
16
13
5
14
20
24
2
19
29
28


>  <PUBCHEM_MMFF94_PARTIAL_CHARGES>
34
1 -0.18
10 -0.55
11 -0.55
12 0.08
13 0.08
14 0.12
15 -0.15
16 -0.15
17 -0.15
18 0.12
19 1.24
2 -0.34
20 -0.14
21 -0.15
22 0.69
23 -0.15
24 0.18
25 -0.15
26 1.16
27 0.15
28 0.15
29 0.15
3 -0.34
30 0.37
31 0.15
32 0.37
33 0.15
34 0.15
4 -0.34
5 -0.34
6 -0.34
7 -0.36
8 -0.36
9 -0.57


>  <PUBCHEM_EFFECTIVE_ROTOR_COUNT>
5.600000

>  <PUBCHEM_PHARMACOPHORE_FEATURES>
8
1 10 donor
1 11 donor
1 7 acceptor
1 8 acceptor
1 9 acceptor
5 7 8 12 13 19 rings
6 12 13 14 15 16 17 rings
6 18 20 21 23 24 25 rings


>  <PUBCHEM_HEAVY_ATOM_COUNT>
26

>  <PUBCHEM_ATOM_DEF_STEREO_COUNT>
0

>  <PUBCHEM_ATOM_UDEF_STEREO_COUNT>
0

>  <PUBCHEM_BOND_DEF_STEREO_COUNT>
0

>  <PUBCHEM_BOND_UDEF_STEREO_COUNT>
0

>  <PUBCHEM_ISOTOPIC_ATOM_COUNT>
0

>  <PUBCHEM_COMPONENT_COUNT>
1

>  <PUBCHEM_CACTVS_TAUTO_COUNT>
15

>  <PUBCHEM_CONFORMER_ID>
07E1119C00000001

>  <PUBCHEM_MMFF94_ENERGY>
64.823700

>  <PUBCHEM_FEATURE_SELFOVERLAP>
40.801000

>  <PUBCHEM_SHAPE_FINGERPRINT>
10 15 18410004477695813320
10299344 5 18202285805616498891
10391435 84 18188485891306458051
10595046 47 18410293571116188728
10835480 77 18337946788657356405
10968037 39 18408603669716736021
11089746 13 13839985534254499447
11315181 36 18273496772081428913
11524674 6 16200430286840919095
11719270 70 18343015559089719862
11724838 91 18335136510351449356
12107183 9 17473543551463900921
12166972 35 18408608058604418836
12236239 1 18411138004609874892
12516196 113 18343301470086866576
12596602 18 18412263895958483712
12730499 353 18131914849968579374
13073987 5 18411699842193088464
13288520 33 18411699886134590093
13533116 47 18341049632293650506
14251732 16 18410293613986636288
14251764 18 18412825789371068391
14461889 52 18409164441984894218
14856354 85 16200430291352092029
14933364 13 18412265016902821080
15183329 4 18409450262967276586
15196674 1 18410575037423713410
15716309 27 18343864403355972463
17844677 252 18339648836793657220
18335252 98 18410579499968834050
21130935 74 18342176618252440058
21150785 3 17821733853137888436
21236236 1 18411700951059619745
21267235 1 18411143506452580966
21315763 28 18410291376920747746
21623969 137 17917713469958571486
220451 1 13830129477442220916
22149856 69 18272662207388432593
22896161 15 18410856576824940005
23081809 10 18041286469650203748
23522609 53 18056508173219300729
23559900 14 18410285956740969009
23569943 247 17461716191343047354
239999 70 18200315403961198014
3004659 81 18334577889725231330
3383291 50 17822581598727263315
34797466 226 17703516562454657324
3545911 37 18412544318995215140
3663271 9 18343304725708656313
4073 2 18113908155828840010
4214541 1 18338798905936861441
4325135 7 18410293622634638964
497634 4 18339925913987834877
5104073 3 18341329976955081840
5109719 28 18200590440718694000
67856867 119 18261960751168714205
7495541 125 17917424328438662281
9831232 110 18055921996388529222
9996256 80 18412543197618360814
999808 66 18114474431089190435


>  <PUBCHEM_SHAPE_MULTIPOLES>
473
22.6
2.15
0.71
1.81
0.02
0
-3.36
-0.01
-0.59
0
-0.01
-0.05
0


>  <PUBCHEM_SHAPE_SELFOVERLAP>
1034.772000

>  <PUBCHEM_SHAPE_VOLUME>
257.600000

>  <PUBCHEM_COORDINATE_TYPE>
2
5
10


$$$$
