5291
  PyMOL2.5          3D                             0

 68 72  0  0  0  0  0  0  0  0999 V2000
   14.6823   54.5058   15.5831 O   0  0  0  0  0  0  0  0  0  0  0  0
   13.3112   49.0962   20.2820 N   0  0  0  0  0  0  0  0  0  0  0  0
   12.5514   46.3078   20.2013 N   0  0  0  0  0  0  0  0  0  0  0  0
   16.1065   52.7044   15.1015 N   0  0  0  0  0  0  0  0  0  0  0  0
   16.9672   56.1526   11.8180 N   0  0  0  0  0  0  0  0  0  0  0  0
   14.7028   56.4102   12.3769 N   0  0  0  0  0  0  0  0  0  0  0  0
   15.8931   58.1463   11.2035 N   0  0  0  0  0  0  0  0  0  0  0  0
   10.3492   56.9703   14.1444 N   0  0  0  0  0  0  0  0  0  0  0  0
   12.7264   48.5001   19.0746 C   0  0  0  0  0  0  0  0  0  0  0  0
   12.8252   48.4038   21.4818 C   0  0  0  0  0  0  0  0  0  0  0  0
   13.0366   47.0011   19.0017 C   0  0  0  0  0  0  0  0  0  0  0  0
   13.1342   46.9044   21.4093 C   0  0  0  0  0  0  0  0  0  0  0  0
   13.0141   50.5255   20.3516 C   0  0  0  0  0  0  0  0  0  0  0  0
   12.8504   44.8790   20.1317 C   0  0  0  0  0  0  0  0  0  0  0  0
   13.5648   51.2711   19.1651 C   0  0  0  0  0  0  0  0  0  0  0  0
   14.8582   51.0117   18.7346 C   0  0  0  0  0  0  0  0  0  0  0  0
   12.7707   52.2085   18.5191 C   0  0  0  0  0  0  0  0  0  0  0  0
   15.3683   51.7035   17.6359 C   0  0  0  0  0  0  0  0  0  0  0  0
   13.2806   52.9002   17.4204 C   0  0  0  0  0  0  0  0  0  0  0  0
   14.5794   52.6478   16.9789 C   0  0  0  0  0  0  0  0  0  0  0  0
   15.1108   53.3676   15.8323 C   0  0  0  0  0  0  0  0  0  0  0  0
   16.8176   53.1610   13.9646 C   0  0  0  0  0  0  0  0  0  0  0  0
   17.2453   54.8687   12.3371 C   0  0  0  0  0  0  0  0  0  0  0  0
   16.5440   54.4191   13.4558 C   0  0  0  0  0  0  0  0  0  0  0  0
   18.2092   54.0534   11.7441 C   0  0  0  0  0  0  0  0  0  0  0  0
   17.7709   52.3388   13.3886 C   0  0  0  0  0  0  0  0  0  0  0  0
   18.4720   52.7883   12.2698 C   0  0  0  0  0  0  0  0  0  0  0  0
   18.9741   54.5093   10.5443 C   0  0  0  0  0  0  0  0  0  0  0  0
   15.8008   56.9393   11.7987 C   0  0  0  0  0  0  0  0  0  0  0  0
   13.6030   57.1908   12.3401 C   0  0  0  0  0  0  0  0  0  0  0  0
   12.4288   56.6250   12.9598 C   0  0  0  0  0  0  0  0  0  0  0  0
   13.5707   58.4432   11.7614 C   0  0  0  0  0  0  0  0  0  0  0  0
   14.7566   58.8737   11.2028 C   0  0  0  0  0  0  0  0  0  0  0  0
   12.2231   55.2498   12.9859 C   0  0  0  0  0  0  0  0  0  0  0  0
   11.4701   57.4346   13.5480 C   0  0  0  0  0  0  0  0  0  0  0  0
   11.0819   54.7340   13.5901 C   0  0  0  0  0  0  0  0  0  0  0  0
   10.1839   55.6285   14.1501 C   0  0  0  0  0  0  0  0  0  0  0  0
   11.6376   48.6483   19.0560 H   0  0  0  0  0  0  0  0  0  0  0  0
   13.1254   48.9456   18.1574 H   0  0  0  0  0  0  0  0  0  0  0  0
   13.3178   48.8139   22.3717 H   0  0  0  0  0  0  0  0  0  0  0  0
   11.7442   48.5513   21.6095 H   0  0  0  0  0  0  0  0  0  0  0  0
   12.5433   46.5895   18.1127 H   0  0  0  0  0  0  0  0  0  0  0  0
   14.1176   46.8535   18.8735 H   0  0  0  0  0  0  0  0  0  0  0  0
   14.2216   46.7504   21.4366 H   0  0  0  0  0  0  0  0  0  0  0  0
   12.7141   46.4224   22.3004 H   0  0  0  0  0  0  0  0  0  0  0  0
   11.9310   50.6881   20.4356 H   0  0  0  0  0  0  0  0  0  0  0  0
   13.4719   50.9607   21.2496 H   0  0  0  0  0  0  0  0  0  0  0  0
   12.4467   44.3587   21.0075 H   0  0  0  0  0  0  0  0  0  0  0  0
   13.9274   44.6823   20.0800 H   0  0  0  0  0  0  0  0  0  0  0  0
   12.3754   44.4293   19.2528 H   0  0  0  0  0  0  0  0  0  0  0  0
   15.4966   50.2967   19.2462 H   0  0  0  0  0  0  0  0  0  0  0  0
   11.7577   52.4138   18.8531 H   0  0  0  0  0  0  0  0  0  0  0  0
   16.3980   51.5027   17.3555 H   0  0  0  0  0  0  0  0  0  0  0  0
   12.6473   53.6278   16.9189 H   0  0  0  0  0  0  0  0  0  0  0  0
   16.3489   51.7556   15.3729 H   0  0  0  0  0  0  0  0  0  0  0  0
   15.8592   55.0980   13.9317 H   0  0  0  0  0  0  0  0  0  0  0  0
   17.9836   51.3522   13.7905 H   0  0  0  0  0  0  0  0  0  0  0  0
   19.2202   52.1406   11.8207 H   0  0  0  0  0  0  0  0  0  0  0  0
   17.7186   56.5684   11.2775 H   0  0  0  0  0  0  0  0  0  0  0  0
   18.2927   54.8043    9.7393 H   0  0  0  0  0  0  0  0  0  0  0  0
   19.6142   53.7148   10.1452 H   0  0  0  0  0  0  0  0  0  0  0  0
   19.6221   55.3535   10.8018 H   0  0  0  0  0  0  0  0  0  0  0  0
   12.6890   59.0689   11.7083 H   0  0  0  0  0  0  0  0  0  0  0  0
   14.8273   59.8426   10.7200 H   0  0  0  0  0  0  0  0  0  0  0  0
   12.9294   54.5556   12.5375 H   0  0  0  0  0  0  0  0  0  0  0  0
   11.5609   58.5155   13.5937 H   0  0  0  0  0  0  0  0  0  0  0  0
   10.9006   53.6658   13.6216 H   0  0  0  0  0  0  0  0  0  0  0  0
    9.2784   55.2769   14.6335 H   0  0  0  0  0  0  0  0  0  0  0  0
  1 21  2  0  0  0  0
  2  9  1  0  0  0  0
  2 10  1  0  0  0  0
  2 13  1  0  0  0  0
  3 11  1  0  0  0  0
  3 12  1  0  0  0  0
  3 14  1  0  0  0  0
  4 21  1  0  0  0  0
  4 22  1  0  0  0  0
  4 55  1  0  0  0  0
  5 23  1  0  0  0  0
  5 29  1  0  0  0  0
  5 59  1  0  0  0  0
  6 29  1  0  0  0  0
  6 30  2  0  0  0  0
  7 29  2  0  0  0  0
  7 33  1  0  0  0  0
  8 35  1  0  0  0  0
  8 37  2  0  0  0  0
  9 11  1  0  0  0  0
  9 38  1  0  0  0  0
  9 39  1  0  0  0  0
 10 12  1  0  0  0  0
 10 40  1  0  0  0  0
 10 41  1  0  0  0  0
 11 42  1  0  0  0  0
 11 43  1  0  0  0  0
 12 44  1  0  0  0  0
 12 45  1  0  0  0  0
 13 15  1  0  0  0  0
 13 46  1  0  0  0  0
 13 47  1  0  0  0  0
 14 48  1  0  0  0  0
 14 49  1  0  0  0  0
 14 50  1  0  0  0  0
 15 16  2  0  0  0  0
 15 17  1  0  0  0  0
 16 18  1  0  0  0  0
 16 51  1  0  0  0  0
 17 19  2  0  0  0  0
 17 52  1  0  0  0  0
 18 20  2  0  0  0  0
 18 53  1  0  0  0  0
 19 20  1  0  0  0  0
 19 54  1  0  0  0  0
 20 21  1  0  0  0  0
 22 24  2  0  0  0  0
 22 26  1  0  0  0  0
 23 24  1  0  0  0  0
 23 25  2  0  0  0  0
 24 56  1  0  0  0  0
 25 27  1  0  0  0  0
 25 28  1  0  0  0  0
 26 27  2  0  0  0  0
 26 57  1  0  0  0  0
 27 58  1  0  0  0  0
 28 60  1  0  0  0  0
 28 61  1  0  0  0  0
 28 62  1  0  0  0  0
 30 31  1  0  0  0  0
 30 32  1  0  0  0  0
 31 34  1  0  0  0  0
 31 35  2  0  0  0  0
 32 33  2  0  0  0  0
 32 63  1  0  0  0  0
 33 64  1  0  0  0  0
 34 36  2  0  0  0  0
 34 65  1  0  0  0  0
 35 66  1  0  0  0  0
 36 37  1  0  0  0  0
 36 67  1  0  0  0  0
 37 68  1  0  0  0  0
M  END
>  <PUBCHEM_COMPOUND_CID>
5291

>  <PUBCHEM_CONFORMER_RMSD>
1

>  <PUBCHEM_CONFORMER_DIVERSEORDER>
1
86
183
155
18
49
271
197
51
136
137
264
53
161
199
59
223
60
118
279
56
163
275
127
135
154
220
196
244
114
219
200
150
221
277
145
88
139
280
283
140
75
232
43
186
249
78
133
207
238
250
132
201
243
191
102
71
260
176
187
97
164
205
255
92
110
209
106
178
3
162
265
134
213
151
72
57
228
65
23
192
251
174
138
41
204
120
242
93
100
47
165
107
158
144
214
274
46
156
113
119
37
143
245
273
50
177
281
87
45
227
152
123
224
35
171
278
32
95
44
58
235
188
80
89
52
141
157
248
284
175
40
190
246
193
166
236
74
230
101
179
215
268
14
83
131
104
239
167
267
19
234
85
254
5
229
206
36
269
153
160
194
129
108
79
68
226
67
173
122
266
55
17
180
142
61
54
112
257
76
94
225
64
272
211
185
217
121
149
195
20
169
98
147
261
105
262
259
48
212
22
27
263
222
208
128
148
117
168
33
170
15
130
25
62
90
84
256
21
4
276
241
126
270
38
282
26
124
202
252
2
109
198
111
172
77
115
28
10
181
182
203
6
231
237
31
184
69
146
13
81
247
159
82
91
210
258
7
189
29
253
70
66
218
42
103
30
11
233
73
96
63
39
240
34
16
99
9
216
12
125
116
8
24


>  <PUBCHEM_MMFF94_PARTIAL_CHARGES>
51
1 -0.57
10 0.27
11 0.27
12 0.27
13 0.41
14 0.27
15 -0.14
16 -0.15
17 -0.15
18 -0.15
19 -0.15
2 -0.81
20 0.09
21 0.54
22 0.12
23 0.1
24 -0.15
25 -0.14
26 -0.15
27 -0.15
28 0.14
29 0.72
3 -0.81
30 0.31
32 -0.15
33 0.16
34 -0.15
35 0.16
36 -0.15
37 0.16
4 -0.55
5 -0.6
51 0.15
52 0.15
53 0.15
54 0.15
55 0.37
56 0.15
57 0.15
58 0.15
59 0.4
6 -0.62
63 0.15
64 0.15
65 0.15
66 0.15
67 0.15
68 0.15
7 -0.62
8 -0.62
9 0.27


>  <PUBCHEM_EFFECTIVE_ROTOR_COUNT>
9.200000

>  <PUBCHEM_PHARMACOPHORE_FEATURES>
13
1 1 acceptor
1 2 cation
1 3 cation
1 4 donor
1 5 donor
1 6 acceptor
1 8 acceptor
4 5 6 7 29 cation
6 15 16 17 18 19 20 rings
6 2 3 9 10 11 12 rings
6 22 23 24 25 26 27 rings
6 6 7 29 30 32 33 rings
6 8 31 34 35 36 37 rings


>  <PUBCHEM_HEAVY_ATOM_COUNT>
37

>  <PUBCHEM_ATOM_DEF_STEREO_COUNT>
0

>  <PUBCHEM_ATOM_UDEF_STEREO_COUNT>
0

>  <PUBCHEM_BOND_DEF_STEREO_COUNT>
0

>  <PUBCHEM_BOND_UDEF_STEREO_COUNT>
0

>  <PUBCHEM_ISOTOPIC_ATOM_COUNT>
0

>  <PUBCHEM_COMPONENT_COUNT>
1

>  <PUBCHEM_CACTVS_TAUTO_COUNT>
6

>  <PUBCHEM_CONFORMER_ID>
000014AB00000001

>  <PUBCHEM_MMFF94_ENERGY>
127.216900

>  <PUBCHEM_FEATURE_SELFOVERLAP>
65.975000

>  <PUBCHEM_SHAPE_FINGERPRINT>
100830 39 18410860958077041852
10951579 204 18197238974742643908
11007060 377 18269849622327105530
11136131 41 18044936770771598434
11621639 254 13254505501323013082
12104220 1 18410571777702331213
12107183 9 18186798084917518398
12128747 34 18130230354994079454
12144603 126 17894916257231727846
12202916 173 18131347506142367149
13947947 74 18272087151057125825
15021287 119 16732703852714263934
15328829 1 17967526866235903152
15351339 4 18338230471684522579
15400415 2 17762632689221619973
15419008 47 17703511077306660712
15776043 110 17967251962395703306
15890870 6 18335419046485918677
16112460 7 18114460063985995098
19611394 137 18201999945758235216
21133410 221 17845067714652049024
21639891 77 18130510820416437024
21792964 463 17608105478808388188
21859007 373 18202281416502593174
23522609 53 17605017917245182908
23569943 247 16661465382439943786
3504750 166 18339919432792631702
42626532 9 17974577093311653163
5047190 69 18343860034915745032
5085150 59 18342738516023217790
6201320 215 18059005086968776344
6371009 1 18409733936799028949
9981440 41 18191600661755950473


>  <PUBCHEM_SHAPE_MULTIPOLES>
720.71
23.61
5.87
1.43
55.18
0.71
-0.37
0.19
-5.12
-14.21
-2.53
2.61
-0.31
-1.28


>  <PUBCHEM_SHAPE_SELFOVERLAP>
1568.426000

>  <PUBCHEM_SHAPE_VOLUME>
390.100000

>  <PUBCHEM_COORDINATE_TYPE>
2
5
10


$$$$
